Feeders/8500-Node/IEEE8500_VLL_Node.Txt

LINE-LINE VOLTAGES BY BUS & NODE

Bus                  Node    VLN (kV)   Angle      pu     Base kV 

SOURCEBUS .......... 1-2     120.75 /_   30.0      1.05   115.000
   -                 2-3     120.75 /_  -90.0      1.05   115.000
   -                 3-1     120.75 /_  150.0      1.05   115.000
_HVMV_SUB_LSB ...... 1-2     13.102 /_    1.3    1.0507    12.470
   -                 2-3     13.091 /_ -118.6    1.0498    12.470
   -                 3-1     13.117 /_  121.4    1.0519    12.470
HVMV_SUB_48332 ..... 1-2     13.102 /_    1.3    1.0507    12.470
   -                 2-3     13.091 /_ -118.6    1.0498    12.470
   -                 3-1     13.117 /_  121.4    1.0519    12.470
M1009763 ........... 1-2     12.616 /_    2.1    1.0117    12.470
   -                 2-3     12.628 /_ -114.3    1.0127    12.470
   -                 3-1     13.317 /_  123.9    1.0679    12.470
L3085398 ........... 1-2     12.649 /_    2.1    1.0143    12.470
   -                 2-3      12.65 /_ -114.3    1.0145    12.470
   -                 3-1     13.337 /_  123.9    1.0695    12.470
M1026891 ........... 1-2     12.646 /_    2.1    1.0141    12.470
   -                 2-3     12.648 /_ -114.3    1.0142    12.470
   -                 3-1     13.335 /_  123.9    1.0694    12.470
L3216367 ........... 1-2     12.676 /_    2.2    1.0166    12.470
   -                 2-3     12.652 /_ -114.3    1.0146    12.470
   -                 3-1     13.333 /_  124.0    1.0692    12.470
M1069468 ........... 1-2     12.676 /_    2.2    1.0165    12.470
   -                 2-3     12.652 /_ -114.3    1.0146    12.470
   -                 3-1     13.333 /_  124.0    1.0692    12.470
M1047592 ........... 1-2     12.718 /_    2.2    1.0199    12.470
   -                 2-3     12.697 /_ -114.2    1.0182    12.470
   -                 3-1     13.381 /_  124.1    1.0731    12.470
M1047339 ........... 1-2     12.865 /_    0.4    1.0317    12.470
   -                 2-3     12.893 /_ -118.5    1.0339    12.470
   -                 3-1     13.099 /_  120.8    1.0504    12.470
M1026915 ........... 1-2     12.649 /_    2.1    1.0143    12.470
   -                 2-3     12.651 /_ -114.3    1.0145    12.470
   -                 3-1     13.336 /_  123.9    1.0695    12.470
M1026920 ........... 1-2     12.648 /_    2.1    1.0143    12.470
   -                 2-3     12.651 /_ -114.3    1.0145    12.470
   -                 3-1     13.335 /_  123.9    1.0694    12.470
M1069464 ........... 1-2     12.675 /_    2.2    1.0164    12.470
   -                 2-3      12.65 /_ -114.3    1.0145    12.470
   -                 3-1     13.332 /_  124.0    1.0691    12.470
N1144665 ........... 1-2     12.733 /_    2.3    1.0211    12.470
   -                 2-3     12.706 /_ -114.2    1.0189    12.470
   -                 3-1     13.385 /_  124.1    1.0734    12.470
M1047515 ........... 1-2      12.73 /_    2.3    1.0209    12.470
   -                 2-3     12.704 /_ -114.2    1.0187    12.470
   -                 3-1     13.382 /_  124.1    1.0732    12.470
M1047312 ........... 1-2     12.848 /_    0.4    1.0303    12.470
   -                 2-3     12.881 /_ -118.5    1.0329    12.470
   -                 3-1     13.089 /_  120.8    1.0496    12.470
L2822871 ........... 1-2     12.671 /_    2.1    1.0161    12.470
   -                 2-3     12.668 /_ -114.3    1.0159    12.470
   -                 3-1     13.351 /_  123.9    1.0706    12.470
M1026872 ........... 1-2     12.669 /_    2.1    1.0159    12.470
   -                 2-3     12.667 /_ -114.3    1.0158    12.470
   -                 3-1     13.349 /_  123.9    1.0705    12.470
N1140827 ........... 1-2     12.654 /_    2.4    1.0147    12.470
   -                 2-3     12.667 /_ -114.3    1.0158    12.470
   -                 3-1     13.294 /_  124.0    1.0661    12.470
M1026726 ........... 1-2     12.654 /_    2.4    1.0147    12.470
   -                 2-3     12.667 /_ -114.3    1.0158    12.470
   -                 3-1     13.294 /_  124.0    1.0661    12.470
L2730106 ........... 1-2     13.159 /_    4.7    1.0553    12.470
   -                 2-3     13.018 /_ -115.2    1.0439    12.470
   -                 3-1     13.115 /_  125.3    1.0517    12.470
N1142099 ........... 1-2     13.159 /_    4.7    1.0553    12.470
   -                 2-3     13.017 /_ -115.2    1.0439    12.470
   -                 3-1     13.114 /_  125.3    1.0517    12.470
M1026658 ........... 1-2     12.651 /_    2.4    1.0145    12.470
   -                 2-3     12.664 /_ -114.3    1.0156    12.470
   -                 3-1     13.288 /_  124.0    1.0656    12.470
L2991914 ........... 1-2     12.706 /_    2.3    1.0189    12.470
   -                 2-3     12.688 /_ -114.2    1.0175    12.470
   -                 3-1     13.357 /_  124.1    1.0711    12.470
M1047503 ........... 1-2     12.705 /_    2.3    1.0188    12.470
   -                 2-3     12.687 /_ -114.2    1.0174    12.470
   -                 3-1     13.356 /_  124.1     1.071    12.470
M1026702 ........... 1-2     12.663 /_    2.4    1.0155    12.470
   -                 2-3     12.671 /_ -114.3    1.0161    12.470
   -                 3-1     13.305 /_  124.0     1.067    12.470
N1139551 ........... 1-2     12.659 /_    2.4    1.0151    12.470
   -                 2-3      12.67 /_ -114.3     1.016    12.470
   -                 3-1       13.3 /_  124.0    1.0666    12.470
M1069424 ........... 1-2     12.667 /_    2.2    1.0158    12.470
   -                 2-3      12.64 /_ -114.3    1.0136    12.470
   -                 3-1     13.326 /_  124.0    1.0687    12.470
L2935549 ........... 1-2     12.666 /_    2.1    1.0157    12.470
   -                 2-3     12.638 /_ -114.3    1.0135    12.470
   -                 3-1     13.325 /_  124.0    1.0686    12.470
M1026795 ........... 1-2     12.692 /_    2.3    1.0178    12.470
   -                 2-3     12.682 /_ -114.2     1.017    12.470
   -                 3-1      13.34 /_  124.1    1.0698    12.470
L3030199 ........... 1-2     13.185 /_    2.6    1.0573    12.470
   -                 2-3     13.105 /_ -117.3    1.0509    12.470
   -                 3-1     13.164 /_  122.9    1.0556    12.470
M1125934 ........... 1-2     13.185 /_    2.6    1.0574    12.470
   -                 2-3     13.105 /_ -117.3    1.0509    12.470
   -                 3-1     13.164 /_  122.9    1.0557    12.470
M1069189 ........... 1-2     12.909 /_    1.1    1.0352    12.470
   -                 2-3     12.913 /_ -117.9    1.0355    12.470
   -                 3-1     13.102 /_  121.6    1.0507    12.470
221-312488 ......... 1-2     13.149 /_    4.3    1.0544    12.470
   -                 2-3     13.022 /_ -115.6    1.0442    12.470
   -                 3-1     13.112 /_  124.8    1.0515    12.470
M1089183 ........... 1-2     13.149 /_    4.3    1.0544    12.470
   -                 2-3     13.022 /_ -115.6    1.0442    12.470
   -                 3-1     13.112 /_  124.8    1.0515    12.470
F739845 ............ 1-2     12.838 /_    0.4    1.0295    12.470
   -                 2-3     12.872 /_ -118.5    1.0323    12.470
   -                 3-1     13.083 /_  120.8    1.0492    12.470
293471 ............. 1-2     12.838 /_    0.4    1.0295    12.470
   -                 2-3     12.872 /_ -118.5    1.0323    12.470
   -                 3-1     13.083 /_  120.8    1.0492    12.470
M1026783 ........... 1-2     12.689 /_    2.3    1.0175    12.470
   -                 2-3     12.681 /_ -114.2    1.0169    12.470
   -                 3-1     13.336 /_  124.1    1.0694    12.470
M1026780 ........... 1-2     12.688 /_    2.3    1.0175    12.470
   -                 2-3     12.681 /_ -114.2    1.0169    12.470
   -                 3-1     13.335 /_  124.1    1.0694    12.470
N1140819 ........... 1-2     12.656 /_    2.4    1.0149    12.470
   -                 2-3     12.668 /_ -114.3    1.0159    12.470
   -                 3-1     13.296 /_  124.0    1.0663    12.470
M1026700 ........... 1-2     12.655 /_    2.4    1.0149    12.470
   -                 2-3     12.668 /_ -114.3    1.0159    12.470
   -                 3-1     13.296 /_  124.0    1.0662    12.470
L2879070 ........... 1-2     12.711 /_    2.2    1.0194    12.470
   -                 2-3     12.694 /_ -114.3    1.0179    12.470
   -                 3-1     13.377 /_  124.0    1.0727    12.470
L3216345 ........... 1-2     12.707 /_    2.2     1.019    12.470
   -                 2-3     12.692 /_ -114.3    1.0178    12.470
   -                 3-1     13.374 /_  124.0    1.0725    12.470
M1069428 ........... 1-2     12.668 /_    2.2    1.0159    12.470
   -                 2-3     12.641 /_ -114.3    1.0137    12.470
   -                 3-1     13.327 /_  124.0    1.0687    12.470
Q14412 ............. 1-2     12.861 /_    0.4    1.0313    12.470
   -                 2-3      12.89 /_ -118.5    1.0337    12.470
   -                 3-1     13.096 /_  120.8    1.0502    12.470
M1047325 ........... 1-2     12.859 /_    0.4    1.0312    12.470
   -                 2-3     12.889 /_ -118.5    1.0336    12.470
   -                 3-1     13.095 /_  120.8    1.0502    12.470
M1108529 ........... 1-2     12.933 /_    3.9    1.0372    12.470
   -                 2-3     12.824 /_ -114.3    1.0284    12.470
   -                 3-1     13.229 /_  125.2    1.0609    12.470
M1108532 ........... 1-2     12.933 /_    3.9    1.0371    12.470
   -                 2-3     12.824 /_ -114.3    1.0284    12.470
   -                 3-1     13.229 /_  125.2    1.0609    12.470
M1047346 ........... 1-2     12.872 /_    0.4    1.0322    12.470
   -                 2-3     12.897 /_ -118.5    1.0343    12.470
   -                 3-1     13.103 /_  120.8    1.0508    12.470
M1047345 ........... 1-2      12.87 /_    0.4    1.0321    12.470
   -                 2-3     12.896 /_ -118.5    1.0342    12.470
   -                 3-1     13.102 /_  120.8    1.0507    12.470
L2767340 ........... 1-2     13.161 /_    4.1    1.0554    12.470
   -                 2-3     13.038 /_ -115.8    1.0455    12.470
   -                 3-1     13.124 /_  124.6    1.0524    12.470
M3037449 ........... 1-2     13.161 /_    4.1    1.0554    12.470
   -                 2-3     13.038 /_ -115.8    1.0455    12.470
   -                 3-1     13.124 /_  124.6    1.0524    12.470
L2674027 ........... 1-2     13.151 /_    4.7    1.0546    12.470
   -                 2-3     13.004 /_ -115.1    1.0429    12.470
   -                 3-1     13.109 /_  125.4    1.0512    12.470
L2692633 ........... 1-2      13.15 /_    4.7    1.0545    12.470
   -                 2-3     13.003 /_ -115.1    1.0427    12.470
   -                 3-1     13.108 /_  125.4    1.0512    12.470
M1069135 ........... 1-2     12.881 /_    0.4     1.033    12.470
   -                 2-3     12.903 /_ -118.5    1.0347    12.470
   -                 3-1     13.108 /_  120.9    1.0512    12.470
R18242 ............. 1-2     12.881 /_    0.4     1.033    12.470
   -                 2-3     12.903 /_ -118.5    1.0347    12.470
   -                 3-1     13.109 /_  120.9    1.0512    12.470
M1047534 ........... 1-2     12.783 /_    2.3    1.0251    12.470
   -                 2-3     12.739 /_ -114.2    1.0216    12.470
   -                 3-1     13.427 /_  124.2    1.0767    12.470
N1136663 ........... 1-2     12.769 /_    2.3     1.024    12.470
   -                 2-3      12.73 /_ -114.2    1.0209    12.470
   -                 3-1     13.417 /_  124.2     1.076    12.470
L2973153 ........... 1-2     12.705 /_    2.2    1.0188    12.470
   -                 2-3     12.686 /_ -114.2    1.0173    12.470
   -                 3-1     13.376 /_  124.1    1.0727    12.470
N1136998 ........... 1-2     12.704 /_    2.2    1.0188    12.470
   -                 2-3     12.686 /_ -114.2    1.0173    12.470
   -                 3-1     13.376 /_  124.1    1.0727    12.470
M1142871 ........... 1-2      13.17 /_    3.2    1.0562    12.470
   -                 2-3     13.077 /_ -116.7    1.0487    12.470
   -                 3-1     13.145 /_  123.6    1.0541    12.470
M1142874 ........... 1-2      13.17 /_    3.2    1.0561    12.470
   -                 2-3     13.076 /_ -116.7    1.0486    12.470
   -                 3-1     13.144 /_  123.6     1.054    12.470
L2955081 ........... 1-2     13.194 /_    2.5    1.0581    12.470
   -                 2-3     13.114 /_ -117.4    1.0516    12.470
   -                 3-1     13.171 /_  122.8    1.0562    12.470
M1108315 ........... 1-2     13.195 /_    2.5    1.0582    12.470
   -                 2-3     13.115 /_ -117.4    1.0517    12.470
   -                 3-1     13.172 /_  122.8    1.0563    12.470
L2973162 ........... 1-2     12.811 /_    0.3    1.0273    12.470
   -                 2-3     12.853 /_ -118.4    1.0307    12.470
   -                 3-1     13.073 /_  120.8    1.0483    12.470
M1026333 ........... 1-2      12.81 /_    0.3    1.0273    12.470
   -                 2-3     12.852 /_ -118.4    1.0306    12.470
   -                 3-1     13.073 /_  120.8    1.0483    12.470
M1026854 ........... 1-2     12.686 /_    2.2    1.0174    12.470
   -                 2-3      12.68 /_ -114.3    1.0168    12.470
   -                 3-1     13.361 /_  124.0    1.0714    12.470
D6413567-3_INT ..... 1-2     12.904 /_    1.0    1.0348    12.470
   -                 2-3     12.911 /_ -118.0    1.0354    12.470
   -                 3-1     13.102 /_  121.5    1.0507    12.470
E182724 ............ 1-2     12.904 /_    1.0    1.0348    12.470
   -                 2-3     12.911 /_ -118.0    1.0354    12.470
   -                 3-1     13.102 /_  121.5    1.0507    12.470
N1139541 ........... 1-2     12.905 /_    1.0    1.0349    12.470
   -                 2-3     12.911 /_ -118.0    1.0354    12.470
   -                 3-1     13.102 /_  121.5    1.0507    12.470
M4122658 ........... 1-2     13.159 /_    4.5    1.0553    12.470
   -                 2-3     13.022 /_ -115.4    1.0443    12.470
   -                 3-1     13.117 /_  125.1    1.0518    12.470
L2933135 ........... 1-2     13.159 /_    4.5    1.0553    12.470
   -                 2-3     13.022 /_ -115.4    1.0443    12.470
   -                 3-1     13.117 /_  125.1    1.0518    12.470
L2729414 ........... 1-2     12.663 /_    2.4    1.0155    12.470
   -                 2-3     12.671 /_ -114.3    1.0161    12.470
   -                 3-1     13.305 /_  124.0     1.067    12.470
L2860490 ........... 1-2     12.876 /_    0.4    1.0326    12.470
   -                 2-3       12.9 /_ -118.5    1.0345    12.470
   -                 3-1     13.106 /_  120.8     1.051    12.470
L3104134 ........... 1-2     12.874 /_    0.4    1.0324    12.470
   -                 2-3     12.899 /_ -118.5    1.0344    12.470
   -                 3-1     13.104 /_  120.8    1.0509    12.470
M1089118 ........... 1-2      12.92 /_    1.3    1.0361    12.470
   -                 2-3     12.923 /_ -117.8    1.0363    12.470
   -                 3-1     13.111 /_  121.7    1.0514    12.470
M1108505 ........... 1-2     13.156 /_    4.8     1.055    12.470
   -                 2-3     13.009 /_ -115.1    1.0432    12.470
   -                 3-1     13.111 /_  125.4    1.0514    12.470
L2955047 ........... 1-2     13.154 /_    4.8    1.0549    12.470
   -                 2-3     13.007 /_ -115.1    1.0431    12.470
   -                 3-1      13.11 /_  125.4    1.0513    12.470
L3214071 ........... 1-2     13.165 /_    3.6    1.0558    12.470
   -                 2-3     13.058 /_ -116.3    1.0471    12.470
   -                 3-1     13.134 /_  124.1    1.0532    12.470
M1125952 ........... 1-2     13.165 /_    3.6    1.0557    12.470
   -                 2-3     13.056 /_ -116.3     1.047    12.470
   -                 3-1     13.133 /_  124.1    1.0531    12.470
L3142049 ........... 1-2      13.16 /_    4.7    1.0553    12.470
   -                 2-3     13.015 /_ -115.1    1.0437    12.470
   -                 3-1     13.113 /_  125.4    1.0516    12.470
M1108493 ........... 1-2      13.16 /_    4.8    1.0553    12.470
   -                 2-3     13.013 /_ -115.1    1.0435    12.470
   -                 3-1     13.113 /_  125.4    1.0515    12.470
M1069169 ........... 1-2     12.901 /_    0.9    1.0346    12.470
   -                 2-3      12.91 /_ -118.0    1.0353    12.470
   -                 3-1     13.102 /_  121.4    1.0506    12.470
L3010556 ........... 1-2       12.9 /_    0.9    1.0345    12.470
   -                 2-3      12.91 /_ -118.1    1.0353    12.470
   -                 3-1     13.102 /_  121.4    1.0507    12.470
M1026330 ........... 1-2     12.808 /_    0.3    1.0271    12.470
   -                 2-3      12.85 /_ -118.4    1.0305    12.470
   -                 3-1     13.073 /_  120.8    1.0483    12.470
M1108381 ........... 1-2      13.15 /_    4.3    1.0546    12.470
   -                 2-3     13.023 /_ -115.6    1.0444    12.470
   -                 3-1     13.114 /_  124.8    1.0516    12.470
L3254237 ........... 1-2      13.15 /_    4.3    1.0545    12.470
   -                 2-3     13.023 /_ -115.6    1.0443    12.470
   -                 3-1     13.113 /_  124.8    1.0516    12.470
M1069519 ........... 1-2     12.891 /_    3.3    1.0337    12.470
   -                 2-3     12.775 /_ -114.7    1.0245    12.470
   -                 3-1     13.214 /_  124.7    1.0597    12.470
M1089145 ........... 1-2     13.154 /_    2.0    1.0548    12.470
   -                 2-3     13.077 /_ -117.9    1.0487    12.470
   -                 3-1     13.136 /_  122.3    1.0534    12.470
L3215385 ........... 1-2     13.154 /_    2.0    1.0548    12.470
   -                 2-3     13.077 /_ -117.9    1.0487    12.470
   -                 3-1     13.136 /_  122.3    1.0534    12.470
M1026852 ........... 1-2     12.682 /_    2.2     1.017    12.470
   -                 2-3     12.677 /_ -114.3    1.0166    12.470
   -                 3-1     13.358 /_  124.0    1.0712    12.470
M1069420 ........... 1-2     12.664 /_    2.1    1.0156    12.470
   -                 2-3     12.637 /_ -114.3    1.0134    12.470
   -                 3-1     13.325 /_  124.0    1.0685    12.470
E182732 ............ 1-2     12.676 /_    2.4    1.0166    12.470
   -                 2-3     12.676 /_ -114.2    1.0165    12.470
   -                 3-1     13.321 /_  124.1    1.0683    12.470
M1026760 ........... 1-2     12.676 /_    2.4    1.0165    12.470
   -                 2-3     12.676 /_ -114.2    1.0165    12.470
   -                 3-1     13.321 /_  124.1    1.0682    12.470
N1136354 ........... 1-2      12.89 /_    3.3    1.0337    12.470
   -                 2-3     12.774 /_ -114.7    1.0244    12.470
   -                 3-1     13.214 /_  124.7    1.0597    12.470
L2745848 ........... 1-2      12.68 /_    2.2    1.0169    12.470
   -                 2-3     12.658 /_ -114.3     1.015    12.470
   -                 3-1     13.336 /_  124.1    1.0695    12.470
L2673308 ........... 1-2      12.68 /_    2.2    1.0168    12.470
   -                 2-3     12.656 /_ -114.3     1.015    12.470
   -                 3-1     13.336 /_  124.0    1.0694    12.470
L2991939 ........... 1-2     12.678 /_    2.2    1.0167    12.470
   -                 2-3     12.654 /_ -114.3    1.0148    12.470
   -                 3-1     13.335 /_  124.0    1.0693    12.470
M1142851 ........... 1-2     13.174 /_    2.8    1.0565    12.470
   -                 2-3     13.091 /_ -117.1    1.0498    12.470
   -                 3-1     13.153 /_  123.2    1.0548    12.470
196-31070 .......... 1-2     13.174 /_    2.9    1.0565    12.470
   -                 2-3     13.091 /_ -117.0    1.0498    12.470
   -                 3-1     13.153 /_  123.2    1.0548    12.470
M1069350 ........... 1-2     12.656 /_    2.1    1.0149    12.470
   -                 2-3     12.625 /_ -114.3    1.0124    12.470
   -                 3-1     13.317 /_  124.0    1.0679    12.470
N1144668 ........... 1-2     12.656 /_    2.1    1.0149    12.470
   -                 2-3     12.625 /_ -114.3    1.0124    12.470
   -                 3-1     13.317 /_  124.0    1.0679    12.470
L3254238 ........... 1-2     12.841 /_    0.4    1.0297    12.470
   -                 2-3     12.875 /_ -118.5    1.0325    12.470
   -                 3-1     13.085 /_  120.8    1.0493    12.470
M1047303 ........... 1-2     12.838 /_    0.4    1.0295    12.470
   -                 2-3     12.872 /_ -118.5    1.0323    12.470
   -                 3-1     13.083 /_  120.8    1.0492    12.470
M1047528 ........... 1-2     12.747 /_    2.3    1.0222    12.470
   -                 2-3     12.715 /_ -114.2    1.0197    12.470
   -                 3-1     13.401 /_  124.1    1.0746    12.470
L2858166 ........... 1-2     12.746 /_    2.3    1.0222    12.470
   -                 2-3     12.715 /_ -114.2    1.0196    12.470
   -                 3-1     13.401 /_  124.1    1.0746    12.470
M1142843 ........... 1-2     13.176 /_    2.7    1.0566    12.470
   -                 2-3     13.096 /_ -117.2    1.0502    12.470
   -                 3-1     13.156 /_  123.1     1.055    12.470
L3081380 ........... 1-2     13.177 /_    2.7    1.0567    12.470
   -                 2-3     13.097 /_ -117.2    1.0503    12.470
   -                 3-1     13.157 /_  123.1    1.0551    12.470
N1142104 ........... 1-2     13.158 /_    4.8    1.0552    12.470
   -                 2-3      13.01 /_ -115.0    1.0433    12.470
   -                 3-1     13.111 /_  125.5    1.0514    12.470
M1108500 ........... 1-2     13.157 /_    4.8    1.0551    12.470
   -                 2-3     13.009 /_ -115.0    1.0432    12.470
   -                 3-1     13.111 /_  125.4    1.0514    12.470
M1186061 ........... 1-2     13.146 /_    2.0    1.0542    12.470
   -                 2-3     13.101 /_ -117.9    1.0506    12.470
   -                 3-1     13.143 /_  122.2     1.054    12.470
M1069417 ........... 1-2      12.66 /_    2.1    1.0152    12.470
   -                 2-3     12.631 /_ -114.3    1.0129    12.470
   -                 3-1     13.322 /_  124.0    1.0683    12.470
N1138597 ........... 1-2      12.66 /_    2.1    1.0152    12.470
   -                 2-3      12.63 /_ -114.3    1.0128    12.470
   -                 3-1     13.321 /_  124.0    1.0683    12.470
M1142832 ........... 1-2     13.179 /_    2.7    1.0569    12.470
   -                 2-3     13.099 /_ -117.2    1.0504    12.470
   -                 3-1     13.159 /_  123.0    1.0552    12.470
L3160865 ........... 1-2      13.18 /_    2.7    1.0569    12.470
   -                 2-3       13.1 /_ -117.2    1.0505    12.470
   -                 3-1     13.159 /_  123.0    1.0553    12.470
L2822869 ........... 1-2     12.702 /_    2.3    1.0186    12.470
   -                 2-3     12.686 /_ -114.2    1.0173    12.470
   -                 3-1     13.352 /_  124.1    1.0707    12.470
M1026808 ........... 1-2     12.699 /_    2.3    1.0183    12.470
   -                 2-3     12.684 /_ -114.2    1.0172    12.470
   -                 3-1     13.348 /_  124.1    1.0704    12.470
M1089198 ........... 1-2     12.913 /_    3.6    1.0355    12.470
   -                 2-3     12.802 /_ -114.5    1.0266    12.470
   -                 3-1     13.222 /_  125.0    1.0603    12.470
M1089201 ........... 1-2     12.909 /_    3.6    1.0352    12.470
   -                 2-3     12.798 /_ -114.5    1.0263    12.470
   -                 3-1      13.22 /_  124.9    1.0602    12.470
M1047763 ........... 1-2     12.639 /_    2.1    1.0135    12.470
   -                 2-3     12.638 /_ -114.1    1.0135    12.470
   -                 3-1     13.353 /_  124.0    1.0708    12.470
M1047513 ........... 1-2     12.718 /_    2.3    1.0199    12.470
   -                 2-3     12.695 /_ -114.2     1.018    12.470
   -                 3-1      13.37 /_  124.1    1.0722    12.470
M1047507 ........... 1-2      12.71 /_    2.3    1.0193    12.470
   -                 2-3      12.69 /_ -114.2    1.0176    12.470
   -                 3-1     13.362 /_  124.1    1.0716    12.470
M1142863 ........... 1-2     13.173 /_    3.0    1.0564    12.470
   -                 2-3     13.087 /_ -116.9    1.0494    12.470
   -                 3-1     13.151 /_  123.3    1.0546    12.470
M1142818 ........... 1-2     13.183 /_    2.6    1.0572    12.470
   -                 2-3     13.103 /_ -117.3    1.0508    12.470
   -                 3-1     13.162 /_  123.0    1.0555    12.470
P829965 ............ 1-2     13.183 /_    2.6    1.0572    12.470
   -                 2-3     13.103 /_ -117.3    1.0507    12.470
   -                 3-1     13.162 /_  123.0    1.0555    12.470
Q14733 ............. 1-2     12.813 /_    2.4    1.0275    12.470
   -                 2-3     12.759 /_ -114.2    1.0231    12.470
   -                 3-1     13.449 /_  124.3    1.0785    12.470
M1047568 ........... 1-2     12.811 /_    2.4    1.0274    12.470
   -                 2-3     12.758 /_ -114.2    1.0231    12.470
   -                 3-1     13.448 /_  124.3    1.0784    12.470
M1069419 ........... 1-2     12.662 /_    2.1    1.0154    12.470
   -                 2-3     12.633 /_ -114.3    1.0131    12.470
   -                 3-1     13.323 /_  124.0    1.0684    12.470
M1069418 ........... 1-2     12.661 /_    2.1    1.0153    12.470
   -                 2-3     12.632 /_ -114.3     1.013    12.470
   -                 3-1     13.322 /_  124.0    1.0683    12.470
M1026824 ........... 1-2     12.624 /_    2.1    1.0124    12.470
   -                 2-3      12.63 /_ -114.3    1.0129    12.470
   -                 3-1     13.323 /_  123.9    1.0684    12.470
M3032980 ........... 1-2     13.146 /_    2.0    1.0542    12.470
   -                 2-3     13.101 /_ -117.9    1.0506    12.470
   -                 3-1     13.144 /_  122.2     1.054    12.470
M3032977 ........... 1-2     13.152 /_    2.1    1.0547    12.470
   -                 2-3     13.101 /_ -117.8    1.0506    12.470
   -                 3-1     13.146 /_  122.4    1.0542    12.470
M3763618 ........... 1-2     12.716 /_    2.2    1.0197    12.470
   -                 2-3     12.696 /_ -114.2    1.0181    12.470
   -                 3-1      13.38 /_  124.1     1.073    12.470
M1047490 ........... 1-2     12.696 /_    2.3    1.0182    12.470
   -                 2-3     12.679 /_ -114.2    1.0167    12.470
   -                 3-1     13.352 /_  124.1    1.0707    12.470
M1047486 ........... 1-2     12.688 /_    2.2    1.0175    12.470
   -                 2-3     12.668 /_ -114.3    1.0159    12.470
   -                 3-1     13.343 /_  124.1      1.07    12.470
M1047669 ........... 1-2     12.701 /_    2.2    1.0185    12.470
   -                 2-3     12.683 /_ -114.2    1.0171    12.470
   -                 3-1     13.374 /_  124.1    1.0725    12.470
M1047672 ........... 1-2       12.7 /_    2.2    1.0185    12.470
   -                 2-3     12.683 /_ -114.2    1.0171    12.470
   -                 3-1     13.374 /_  124.1    1.0725    12.470
M1125919 ........... 1-2     13.188 /_    2.6    1.0575    12.470
   -                 2-3     13.107 /_ -117.3    1.0511    12.470
   -                 3-1     13.166 /_  122.9    1.0558    12.470
M1142819 ........... 1-2     13.183 /_    2.6    1.0571    12.470
   -                 2-3     13.102 /_ -117.3    1.0507    12.470
   -                 3-1     13.162 /_  123.0    1.0555    12.470
M1089143 ........... 1-2     13.154 /_    2.0    1.0549    12.470
   -                 2-3     13.077 /_ -117.9    1.0487    12.470
   -                 3-1     13.136 /_  122.3    1.0534    12.470
M1069481 ........... 1-2     12.681 /_    2.2    1.0169    12.470
   -                 2-3     12.658 /_ -114.3    1.0151    12.470
   -                 3-1     13.337 /_  124.1    1.0695    12.470
M1026331 ........... 1-2     12.809 /_    0.3    1.0272    12.470
   -                 2-3     12.851 /_ -118.4    1.0306    12.470
   -                 3-1     13.073 /_  120.8    1.0483    12.470
M1108295 ........... 1-2     13.191 /_    2.4    1.0578    12.470
   -                 2-3     13.111 /_ -117.6    1.0514    12.470
   -                 3-1     13.169 /_  122.7    1.0561    12.470
L2936279 ........... 1-2     13.187 /_    2.3    1.0575    12.470
   -                 2-3     13.107 /_ -117.6    1.0511    12.470
   -                 3-1     13.165 /_  122.7    1.0557    12.470
M1089115 ........... 1-2     12.915 /_    1.2    1.0357    12.470
   -                 2-3     12.917 /_ -117.8    1.0359    12.470
   -                 3-1     13.106 /_  121.7     1.051    12.470
M1125968 ........... 1-2     13.162 /_    3.9    1.0555    12.470
   -                 2-3     13.044 /_ -116.0    1.0461    12.470
   -                 3-1     13.127 /_  124.4    1.0527    12.470
M1069175 ........... 1-2     12.906 /_    1.0     1.035    12.470
   -                 2-3     12.912 /_ -118.0    1.0354    12.470
   -                 3-1     13.102 /_  121.5    1.0507    12.470
M3763619 ........... 1-2     12.716 /_    2.2    1.0197    12.470
   -                 2-3     12.696 /_ -114.2    1.0181    12.470
   -                 3-1      13.38 /_  124.1     1.073    12.470
M1089196 ........... 1-2     12.915 /_    3.7    1.0357    12.470
   -                 2-3     12.805 /_ -114.5    1.0268    12.470
   -                 3-1     13.223 /_  125.0    1.0603    12.470
M1047484 ........... 1-2     12.686 /_    2.2    1.0173    12.470
   -                 2-3     12.665 /_ -114.3    1.0157    12.470
   -                 3-1     13.342 /_  124.1    1.0699    12.470
L3010560 ........... 1-2     12.685 /_    2.2    1.0173    12.470
   -                 2-3     12.664 /_ -114.3    1.0156    12.470
...