Feeders/8500-Node/IEEE8500_VLL_Node_true.Txt

LINE-LINE VOLTAGES BY BUS & NODE

Bus                  Node    VLN (kV)   Angle      pu     Base kV 

SOURCEBUS .......... 1-2     120.75 /_   30.0      1.05   115.000
   -                 2-3     120.75 /_  -90.0      1.05   115.000
   -                 3-1     120.75 /_  150.0      1.05   115.000
_HVMV_SUB_LSB ...... 1-2     13.075 /_   -0.7    1.0485    12.470
   -                 2-3     13.073 /_ -120.3    1.0484    12.470
   -                 3-1      13.14 /_  119.5    1.0537    12.470
HVMV_SUB_48332 ..... 1-2     13.075 /_   -0.7    1.0485    12.470
   -                 2-3     13.073 /_ -120.3    1.0484    12.470
   -                 3-1      13.14 /_  119.5    1.0537    12.470
M1009763 ........... 1-2     12.745 /_   -4.9    1.0221    12.470
   -                 2-3     12.116 /_ -121.8   0.97164    12.470
   -                 3-1     13.027 /_  119.0    1.0447    12.470
L3085398 ........... 1-2     12.788 /_   -4.9    1.0255    12.470
   -                 2-3     12.145 /_ -121.9   0.97392    12.470
   -                 3-1      13.05 /_  119.0    1.0465    12.470
M1026891 ........... 1-2     12.784 /_   -4.9    1.0252    12.470
   -                 2-3     12.141 /_ -121.9   0.97364    12.470
   -                 3-1     13.048 /_  119.0    1.0464    12.470
L3216367 ........... 1-2      12.86 /_   -4.7    1.0313    12.470
   -                 2-3      12.14 /_ -121.8   0.97352    12.470
   -                 3-1     13.071 /_  119.4    1.0482    12.470
M1069468 ........... 1-2     12.859 /_   -4.8    1.0312    12.470
   -                 2-3     12.138 /_ -121.8   0.97339    12.470
   -                 3-1      13.07 /_  119.4    1.0481    12.470
M1047592 ........... 1-2     12.955 /_   -4.6    1.0389    12.470
   -                 2-3     12.248 /_ -121.8   0.98221    12.470
   -                 3-1     13.156 /_  119.4     1.055    12.470
M1047339 ........... 1-2     12.646 /_   -3.7    1.0141    12.470
   -                 2-3     12.685 /_ -122.4    1.0173    12.470
   -                 3-1     12.922 /_  116.8    1.0363    12.470
M1026915 ........... 1-2     12.783 /_   -4.9    1.0251    12.470
   -                 2-3     12.143 /_ -121.9   0.97378    12.470
   -                 3-1     13.044 /_  119.0    1.0461    12.470
M1026920 ........... 1-2     12.779 /_   -4.9    1.0247    12.470
   -                 2-3     12.141 /_ -121.9    0.9736    12.470
   -                 3-1      13.04 /_  119.0    1.0457    12.470
M1069464 ........... 1-2     12.857 /_   -4.8    1.0311    12.470
   -                 2-3     12.135 /_ -121.8   0.97316    12.470
   -                 3-1     13.068 /_  119.4     1.048    12.470
N1144665 ........... 1-2     12.995 /_   -4.5    1.0421    12.470
   -                 2-3     12.267 /_ -121.7   0.98369    12.470
   -                 3-1      13.18 /_  119.6    1.0569    12.470
M1047515 ........... 1-2     12.988 /_   -4.5    1.0416    12.470
   -                 2-3     12.262 /_ -121.7   0.98331    12.470
   -                 3-1     13.174 /_  119.6    1.0565    12.470
M1047312 ........... 1-2     12.603 /_   -3.7    1.0107    12.470
   -                 2-3     12.669 /_ -122.4     1.016    12.470
   -                 3-1     12.889 /_  116.7    1.0336    12.470
L2822871 ........... 1-2     12.842 /_   -4.8    1.0298    12.470
   -                 2-3     12.184 /_ -121.8   0.97709    12.470
   -                 3-1     13.084 /_  119.1    1.0492    12.470
M1026872 ........... 1-2     12.837 /_   -4.8    1.0295    12.470
   -                 2-3     12.181 /_ -121.8   0.97683    12.470
   -                 3-1     13.081 /_  119.1     1.049    12.470
N1140827 ........... 1-2     12.869 /_   -4.4     1.032    12.470
   -                 2-3     12.206 /_ -121.7   0.97881    12.470
   -                 3-1     13.053 /_  119.5    1.0468    12.470
M1026726 ........... 1-2     12.869 /_   -4.4     1.032    12.470
   -                 2-3     12.206 /_ -121.7   0.97881    12.470
   -                 3-1     13.053 /_  119.5    1.0468    12.470
L2730106 ........... 1-2     12.696 /_   -0.2    1.0182    12.470
   -                 2-3     12.847 /_ -119.0    1.0302    12.470
   -                 3-1     13.014 /_  119.8    1.0436    12.470
N1142099 ........... 1-2     12.695 /_   -0.2     1.018    12.470
   -                 2-3     12.846 /_ -119.0    1.0301    12.470
   -                 3-1     13.013 /_  119.8    1.0436    12.470
M1026658 ........... 1-2     12.864 /_   -4.4    1.0316    12.470
   -                 2-3     12.203 /_ -121.7   0.97863    12.470
   -                 3-1     13.046 /_  119.4    1.0462    12.470
L2991914 ........... 1-2     12.937 /_   -4.5    1.0375    12.470
   -                 2-3     12.228 /_ -121.7   0.98062    12.470
   -                 3-1      13.13 /_  119.6    1.0529    12.470
M1047503 ........... 1-2     12.936 /_   -4.5    1.0373    12.470
   -                 2-3     12.228 /_ -121.7   0.98057    12.470
   -                 3-1     13.128 /_  119.6    1.0527    12.470
M1026702 ........... 1-2     12.881 /_   -4.4     1.033    12.470
   -                 2-3      12.21 /_ -121.7   0.97919    12.470
   -                 3-1     13.067 /_  119.5    1.0479    12.470
N1139551 ........... 1-2     12.876 /_   -4.4    1.0325    12.470
   -                 2-3     12.209 /_ -121.7   0.97907    12.470
   -                 3-1     13.061 /_  119.5    1.0474    12.470
M1069424 ........... 1-2     12.843 /_   -4.8    1.0299    12.470
   -                 2-3     12.113 /_ -121.8   0.97136    12.470
   -                 3-1     13.053 /_  119.4    1.0468    12.470
L2935549 ........... 1-2     12.841 /_   -4.8    1.0297    12.470
   -                 2-3      12.11 /_ -121.8   0.97111    12.470
   -                 3-1     13.051 /_  119.4    1.0466    12.470
M1026795 ........... 1-2     12.919 /_   -4.5     1.036    12.470
   -                 2-3     12.221 /_ -121.7   0.98006    12.470
   -                 3-1     13.108 /_  119.5    1.0512    12.470
L3030199 ........... 1-2     12.837 /_   -1.2    1.0294    12.470
   -                 2-3     12.937 /_ -120.6    1.0375    12.470
   -                 3-1     13.022 /_  118.7    1.0442    12.470
M1125934 ........... 1-2     12.836 /_   -1.3    1.0294    12.470
   -                 2-3     12.937 /_ -120.6    1.0374    12.470
   -                 3-1     13.021 /_  118.7    1.0442    12.470
M1069189 ........... 1-2     12.838 /_   -3.1    1.0295    12.470
   -                 2-3     12.769 /_ -122.0     1.024    12.470
   -                 3-1     13.017 /_  117.7    1.0439    12.470
221-312488 ......... 1-2     12.713 /_   -0.4    1.0195    12.470
   -                 2-3     12.854 /_ -119.2    1.0308    12.470
   -                 3-1     13.011 /_  119.7    1.0434    12.470
M1089183 ........... 1-2     12.713 /_   -0.4    1.0195    12.470
   -                 2-3     12.854 /_ -119.2    1.0308    12.470
   -                 3-1     13.011 /_  119.7    1.0434    12.470
F739845 ............ 1-2     12.582 /_   -3.7     1.009    12.470
   -                 2-3     12.658 /_ -122.4    1.0151    12.470
   -                 3-1     12.874 /_  116.7    1.0324    12.470
293471 ............. 1-2     12.582 /_   -3.7     1.009    12.470
   -                 2-3     12.658 /_ -122.4    1.0151    12.470
   -                 3-1     12.874 /_  116.7    1.0324    12.470
M1026783 ........... 1-2     12.914 /_   -4.4    1.0356    12.470
   -                 2-3      12.22 /_ -121.7   0.97995    12.470
   -                 3-1     13.103 /_  119.5    1.0508    12.470
M1026780 ........... 1-2     12.914 /_   -4.4    1.0356    12.470
   -                 2-3      12.22 /_ -121.7   0.97993    12.470
   -                 3-1     13.102 /_  119.5    1.0507    12.470
N1140819 ........... 1-2     12.871 /_   -4.4    1.0322    12.470
   -                 2-3     12.207 /_ -121.7   0.97891    12.470
   -                 3-1     13.056 /_  119.5     1.047    12.470
M1026700 ........... 1-2     12.871 /_   -4.4    1.0321    12.470
   -                 2-3     12.207 /_ -121.7   0.97889    12.470
   -                 3-1     13.055 /_  119.5    1.0469    12.470
L2879070 ........... 1-2      12.94 /_   -4.6    1.0377    12.470
   -                 2-3     12.241 /_ -121.8   0.98162    12.470
   -                 3-1     13.146 /_  119.4    1.0542    12.470
L3216345 ........... 1-2      12.93 /_   -4.7    1.0369    12.470
   -                 2-3     12.236 /_ -121.8   0.98124    12.470
   -                 3-1      13.14 /_  119.4    1.0537    12.470
M1069428 ........... 1-2     12.844 /_   -4.8      1.03    12.470
   -                 2-3     12.116 /_ -121.8   0.97158    12.470
   -                 3-1     13.055 /_  119.4    1.0469    12.470
Q14412 ............. 1-2     12.635 /_   -3.7    1.0132    12.470
   -                 2-3     12.681 /_ -122.4    1.0169    12.470
   -                 3-1     12.914 /_  116.8    1.0356    12.470
M1047325 ........... 1-2     12.632 /_   -3.7     1.013    12.470
   -                 2-3      12.68 /_ -122.4    1.0168    12.470
   -                 3-1     12.911 /_  116.7    1.0354    12.470
M1108529 ........... 1-2     13.041 /_   -1.4    1.0458    12.470
   -                 2-3      12.67 /_ -119.6     1.016    12.470
   -                 3-1     13.204 /_  120.8    1.0589    12.470
M1108532 ........... 1-2     13.039 /_   -1.4    1.0456    12.470
   -                 2-3     12.667 /_ -119.7    1.0158    12.470
   -                 3-1     13.203 /_  120.8    1.0588    12.470
M1047346 ........... 1-2     12.662 /_   -3.8    1.0154    12.470
   -                 2-3     12.691 /_ -122.4    1.0177    12.470
   -                 3-1     12.935 /_  116.8    1.0373    12.470
M1047345 ........... 1-2     12.658 /_   -3.8    1.0151    12.470
   -                 2-3     12.689 /_ -122.4    1.0176    12.470
   -                 3-1     12.932 /_  116.8     1.037    12.470
L2767340 ........... 1-2     12.745 /_   -0.5     1.022    12.470
   -                 2-3     12.876 /_ -119.4    1.0326    12.470
   -                 3-1     13.025 /_  119.6    1.0445    12.470
M3037449 ........... 1-2     12.745 /_   -0.5     1.022    12.470
   -                 2-3     12.876 /_ -119.4    1.0326    12.470
   -                 3-1     13.025 /_  119.6    1.0445    12.470
L2674027 ........... 1-2     12.641 /_   -0.4    1.0137    12.470
   -                 2-3     12.809 /_ -119.0    1.0272    12.470
   -                 3-1     12.999 /_  119.7    1.0424    12.470
L2692633 ........... 1-2     12.633 /_   -0.5    1.0131    12.470
   -                 2-3     12.804 /_ -119.0    1.0268    12.470
   -                 3-1     12.996 /_  119.6    1.0422    12.470
M1069135 ........... 1-2     12.687 /_   -3.8    1.0174    12.470
   -                 2-3     12.699 /_ -122.4    1.0183    12.470
   -                 3-1     12.955 /_  116.9    1.0389    12.470
R18242 ............. 1-2     12.683 /_   -3.8    1.0171    12.470
   -                 2-3     12.699 /_ -122.4    1.0183    12.470
   -                 3-1     12.952 /_  116.8    1.0386    12.470
M1047534 ........... 1-2     13.108 /_   -4.4    1.0511    12.470
   -                 2-3     12.341 /_ -121.6   0.98964    12.470
   -                 3-1     13.266 /_  119.8    1.0638    12.470
N1136663 ........... 1-2     13.078 /_   -4.4    1.0487    12.470
   -                 2-3     12.322 /_ -121.7    0.9881    12.470
   -                 3-1     13.245 /_  119.7    1.0621    12.470
L2973153 ........... 1-2     12.934 /_   -4.6    1.0372    12.470
   -                 2-3     12.233 /_ -121.7   0.98101    12.470
   -                 3-1     13.152 /_  119.5    1.0547    12.470
N1136998 ........... 1-2     12.933 /_   -4.6    1.0371    12.470
   -                 2-3     12.233 /_ -121.7   0.98095    12.470
   -                 3-1     13.151 /_  119.5    1.0546    12.470
M1142871 ........... 1-2      12.83 /_   -0.8    1.0288    12.470
   -                 2-3     12.931 /_ -119.9     1.037    12.470
   -                 3-1     13.048 /_  119.2    1.0463    12.470
M1142874 ........... 1-2     12.827 /_   -0.8    1.0286    12.470
   -                 2-3      12.93 /_ -119.9    1.0369    12.470
   -                 3-1     13.047 /_  119.3    1.0463    12.470
L2955081 ........... 1-2     12.812 /_   -1.5    1.0275    12.470
   -                 2-3     12.923 /_ -120.8    1.0363    12.470
   -                 3-1     12.992 /_  118.4    1.0419    12.470
M1108315 ........... 1-2      12.81 /_   -1.5    1.0272    12.470
   -                 2-3     12.922 /_ -120.9    1.0362    12.470
   -                 3-1     12.989 /_  118.4    1.0416    12.470
L2973162 ........... 1-2     12.526 /_   -3.7    1.0045    12.470
   -                 2-3     12.632 /_ -122.3     1.013    12.470
   -                 3-1     12.841 /_  116.6    1.0297    12.470
M1026333 ........... 1-2     12.525 /_   -3.7    1.0044    12.470
   -                 2-3     12.631 /_ -122.3    1.0129    12.470
   -                 3-1     12.841 /_  116.6    1.0297    12.470
M1026854 ........... 1-2      12.88 /_   -4.7    1.0329    12.470
   -                 2-3      12.21 /_ -121.8   0.97912    12.470
   -                 3-1     13.108 /_  119.2    1.0511    12.470
D6413567-3_INT ..... 1-2     12.816 /_   -3.2    1.0278    12.470
   -                 2-3      12.76 /_ -122.0    1.0233    12.470
   -                 3-1     13.006 /_  117.6    1.0429    12.470
E182724 ............ 1-2     12.816 /_   -3.2    1.0278    12.470
   -                 2-3      12.76 /_ -122.0    1.0233    12.470
   -                 3-1     13.006 /_  117.6    1.0429    12.470
N1139541 ........... 1-2     12.819 /_   -3.2     1.028    12.470
   -                 2-3     12.761 /_ -122.0    1.0234    12.470
   -                 3-1     13.007 /_  117.6     1.043    12.470
M4122658 ........... 1-2     12.707 /_   -0.3     1.019    12.470
   -                 2-3     12.853 /_ -119.1    1.0307    12.470
   -                 3-1     13.016 /_  119.8    1.0438    12.470
L2933135 ........... 1-2     12.707 /_   -0.3     1.019    12.470
   -                 2-3     12.853 /_ -119.1    1.0307    12.470
   -                 3-1     13.016 /_  119.8    1.0438    12.470
L2729414 ........... 1-2     12.881 /_   -4.4     1.033    12.470
   -                 2-3      12.21 /_ -121.7   0.97918    12.470
   -                 3-1     13.067 /_  119.5    1.0479    12.470
L2860490 ........... 1-2     12.672 /_   -3.8    1.0162    12.470
   -                 2-3     12.695 /_ -122.4     1.018    12.470
   -                 3-1     12.943 /_  116.8     1.038    12.470
L3104134 ........... 1-2     12.666 /_   -3.8    1.0157    12.470
   -                 2-3     12.692 /_ -122.4    1.0178    12.470
   -                 3-1     12.938 /_  116.8    1.0376    12.470
M1089118 ........... 1-2     12.893 /_   -2.9    1.0339    12.470
   -                 2-3     12.807 /_ -121.8     1.027    12.470
   -                 3-1     13.062 /_  117.9    1.0475    12.470
M1108505 ........... 1-2     12.662 /_   -0.3    1.0154    12.470
   -                 2-3     12.825 /_ -118.9    1.0285    12.470
   -                 3-1     13.006 /_  119.8     1.043    12.470
L2955047 ........... 1-2     12.656 /_   -0.3    1.0149    12.470
   -                 2-3      12.82 /_ -118.9    1.0281    12.470
   -                 3-1     13.003 /_  119.8    1.0428    12.470
L3214071 ........... 1-2     12.789 /_   -0.6    1.0256    12.470
   -                 2-3     12.905 /_ -119.7    1.0349    12.470
   -                 3-1     13.036 /_  119.4    1.0454    12.470
M1125952 ........... 1-2     12.785 /_   -0.6    1.0253    12.470
   -                 2-3     12.902 /_ -119.6    1.0347    12.470
   -                 3-1     13.035 /_  119.4    1.0453    12.470
L3142049 ........... 1-2      12.69 /_   -0.2    1.0176    12.470
   -                 2-3     12.842 /_ -118.9    1.0299    12.470
   -                 3-1     13.013 /_  119.9    1.0435    12.470
M1108493 ........... 1-2     12.685 /_   -0.2    1.0172    12.470
   -                 2-3     12.839 /_ -118.9    1.0296    12.470
   -                 3-1     13.012 /_  119.9    1.0435    12.470
M1069169 ........... 1-2     12.802 /_   -3.2    1.0267    12.470
   -                 2-3     12.755 /_ -122.1    1.0228    12.470
   -                 3-1     12.998 /_  117.5    1.0424    12.470
L3010556 ........... 1-2     12.794 /_   -3.3    1.0259    12.470
   -                 2-3     12.751 /_ -122.1    1.0225    12.470
   -                 3-1     12.995 /_  117.5    1.0421    12.470
M1026330 ........... 1-2     12.523 /_   -3.7    1.0042    12.470
   -                 2-3     12.629 /_ -122.3    1.0127    12.470
   -                 3-1      12.84 /_  116.6    1.0297    12.470
M1108381 ........... 1-2     12.716 /_   -0.4    1.0197    12.470
   -                 2-3     12.856 /_ -119.2    1.0309    12.470
   -                 3-1     13.013 /_  119.7    1.0435    12.470
L3254237 ........... 1-2     12.715 /_   -0.4    1.0197    12.470
   -                 2-3     12.855 /_ -119.2    1.0309    12.470
   -                 3-1     13.012 /_  119.7    1.0435    12.470
M1069519 ........... 1-2     12.831 /_   -3.0     1.029    12.470
   -                 2-3     12.493 /_ -120.5    1.0019    12.470
   -                 3-1     13.135 /_  119.5    1.0533    12.470
M1089145 ........... 1-2     12.578 /_   -2.0    1.0086    12.470
   -                 2-3     12.765 /_ -121.3    1.0236    12.470
   -                 3-1     12.797 /_  117.6    1.0262    12.470
L3215385 ........... 1-2     12.578 /_   -2.0    1.0086    12.470
   -                 2-3     12.765 /_ -121.3    1.0236    12.470
   -                 3-1     12.797 /_  117.6    1.0262    12.470
M1026852 ........... 1-2     12.869 /_   -4.8     1.032    12.470
   -                 2-3     12.203 /_ -121.8   0.97855    12.470
   -                 3-1     13.101 /_  119.2    1.0506    12.470
M1069420 ........... 1-2     12.838 /_   -4.8    1.0295    12.470
   -                 2-3     12.106 /_ -121.8   0.97084    12.470
   -                 3-1     13.049 /_  119.4    1.0464    12.470
E182732 ............ 1-2     12.899 /_   -4.4    1.0344    12.470
   -                 2-3     12.215 /_ -121.7   0.97959    12.470
   -                 3-1     13.086 /_  119.5    1.0494    12.470
M1026760 ........... 1-2     12.898 /_   -4.4    1.0343    12.470
   -                 2-3     12.215 /_ -121.7   0.97958    12.470
   -                 3-1     13.086 /_  119.5    1.0494    12.470
N1136354 ........... 1-2      12.83 /_   -3.0    1.0289    12.470
   -                 2-3     12.488 /_ -120.6    1.0014    12.470
   -                 3-1     13.134 /_  119.5    1.0533    12.470
L2745848 ........... 1-2     12.869 /_   -4.7     1.032    12.470
   -                 2-3     12.153 /_ -121.8   0.97457    12.470
   -                 3-1     13.078 /_  119.4    1.0487    12.470
L2673308 ........... 1-2     12.867 /_   -4.7    1.0318    12.470
   -                 2-3      12.15 /_ -121.8   0.97434    12.470
   -                 3-1     13.076 /_  119.4    1.0486    12.470
L2991939 ........... 1-2     12.863 /_   -4.7    1.0315    12.470
   -                 2-3     12.144 /_ -121.8   0.97389    12.470
   -                 3-1     13.073 /_  119.4    1.0484    12.470
M1142851 ........... 1-2     12.859 /_   -0.9    1.0312    12.470
   -                 2-3     12.951 /_ -120.1    1.0386    12.470
   -                 3-1     13.056 /_  119.1     1.047    12.470
196-31070 .......... 1-2     12.858 /_   -0.9    1.0311    12.470
   -                 2-3     12.951 /_ -120.1    1.0385    12.470
   -                 3-1     13.056 /_  119.1     1.047    12.470
M1069350 ........... 1-2     12.823 /_   -4.9    1.0283    12.470
   -                 2-3      12.08 /_ -121.9    0.9687    12.470
   -                 3-1     13.028 /_  119.4    1.0448    12.470
N1144668 ........... 1-2     12.823 /_   -4.9    1.0283    12.470
   -                 2-3     12.079 /_ -121.9   0.96868    12.470
   -                 3-1     13.028 /_  119.4    1.0447    12.470
L3254238 ........... 1-2     12.588 /_   -3.7    1.0095    12.470
   -                 2-3     12.661 /_ -122.4    1.0153    12.470
   -                 3-1     12.878 /_  116.7    1.0327    12.470
M1047303 ........... 1-2     12.582 /_   -3.7     1.009    12.470
   -                 2-3     12.658 /_ -122.4    1.0151    12.470
   -                 3-1     12.874 /_  116.7    1.0324    12.470
M1047528 ........... 1-2     13.025 /_   -4.5    1.0445    12.470
   -                 2-3     12.288 /_ -121.7   0.98544    12.470
   -                 3-1     13.207 /_  119.6    1.0591    12.470
L2858166 ........... 1-2     13.024 /_   -4.5    1.0444    12.470
   -                 2-3     12.288 /_ -121.7    0.9854    12.470
   -                 3-1     13.207 /_  119.6    1.0591    12.470
M1142843 ........... 1-2     12.869 /_   -1.0     1.032    12.470
   -                 2-3     12.957 /_ -120.2    1.0391    12.470
   -                 3-1     13.059 /_  119.1    1.0472    12.470
L3081380 ........... 1-2     12.865 /_   -1.0    1.0317    12.470
   -                 2-3     12.955 /_ -120.2    1.0389    12.470
   -                 3-1     13.055 /_  119.0    1.0469    12.470
N1142104 ........... 1-2     12.672 /_   -0.2    1.0162    12.470
   -                 2-3     12.831 /_ -118.9     1.029    12.470
   -                 3-1     13.009 /_  119.9    1.0432    12.470
M1108500 ........... 1-2     12.666 /_   -0.2    1.0157    12.470
   -                 2-3     12.827 /_ -118.9    1.0287    12.470
   -                 3-1     13.007 /_  119.8     1.043    12.470
M1186061 ........... 1-2      12.98 /_   -0.9    1.0409    12.470
   -                 2-3     13.018 /_ -120.3    1.0439    12.470
   -                 3-1     13.106 /_  119.3     1.051    12.470
M1069417 ........... 1-2      12.83 /_   -4.9    1.0289    12.470
   -                 2-3     12.093 /_ -121.9   0.96977    12.470
   -                 3-1     13.041 /_  119.4    1.0458    12.470
N1138597 ........... 1-2     12.829 /_   -4.9    1.0288    12.470
   -                 2-3     12.092 /_ -121.9   0.96968    12.470
   -                 3-1      13.04 /_  119.4    1.0457    12.470
M1142832 ........... 1-2     12.858 /_   -1.1    1.0311    12.470
   -                 2-3      12.95 /_ -120.3    1.0385    12.470
   -                 3-1     13.046 /_  119.0    1.0462    12.470
L3160865 ........... 1-2     12.855 /_   -1.1    1.0309    12.470
   -                 2-3     12.949 /_ -120.4    1.0384    12.470
   -                 3-1     13.044 /_  118.9     1.046    12.470
L2822869 ........... 1-2     12.932 /_   -4.5     1.037    12.470
   -                 2-3     12.226 /_ -121.7   0.98044    12.470
   -                 3-1     13.123 /_  119.6    1.0524    12.470
M1026808 ........... 1-2     12.927 /_   -4.5    1.0367    12.470
   -                 2-3     12.224 /_ -121.7    0.9803    12.470
   -                 3-1     13.118 /_  119.6    1.0519    12.470
M1089198 ........... 1-2     12.942 /_   -2.1    1.0379    12.470
   -                 2-3     12.591 /_ -120.1    1.0097    12.470
   -                 3-1     13.169 /_  120.2    1.0561    12.470
M1089201 ........... 1-2     12.924 /_   -2.3    1.0364    12.470
   -                 2-3     12.577 /_ -120.1    1.0086    12.470
   -                 3-1     13.164 /_  120.1    1.0556    12.470
M1047763 ........... 1-2     12.805 /_   -4.7    1.0269    12.470
   -                 2-3     12.149 /_ -121.4   0.97422    12.470
   -                 3-1     13.109 /_  119.4    1.0512    12.470
M1047513 ........... 1-2      12.96 /_   -4.5    1.0393    12.470
   -                 2-3     12.242 /_ -121.7   0.98175    12.470
   -                 3-1     13.151 /_  119.6    1.0546    12.470
M1047507 ........... 1-2     12.943 /_   -4.5    1.0379    12.470
   -                 2-3     12.231 /_ -121.7    0.9808    12.470
   -                 3-1     13.136 /_  119.6    1.0534    12.470
M1142863 ........... 1-2     12.849 /_   -0.9    1.0304    12.470
   -                 2-3     12.945 /_ -120.1    1.0381    12.470
   -                 3-1     13.053 /_  119.2    1.0468    12.470
M1142818 ........... 1-2     12.842 /_   -1.2    1.0299    12.470
   -                 2-3     12.941 /_ -120.5    1.0378    12.470
   -                 3-1     13.028 /_  118.8    1.0448    12.470
P829965 ............ 1-2     12.842 /_   -1.2    1.0298    12.470
   -                 2-3     12.941 /_ -120.5    1.0377    12.470
   -                 3-1     13.028 /_  118.8    1.0448    12.470
Q14733 ............. 1-2     13.176 /_   -4.3    1.0566    12.470
   -                 2-3     12.385 /_ -121.6   0.99315    12.470
   -                 3-1     13.316 /_  120.0    1.0678    12.470
M1047568 ........... 1-2     13.172 /_   -4.3    1.0563    12.470
   -                 2-3     12.382 /_ -121.6   0.99295    12.470
   -                 3-1     13.313 /_  120.0    1.0676    12.470
M1069419 ........... 1-2     12.833 /_   -4.9    1.0291    12.470
   -                 2-3     12.098 /_ -121.9   0.97016    12.470
   -                 3-1     13.044 /_  119.4     1.046    12.470
M1069418 ........... 1-2     12.832 /_   -4.9     1.029    12.470
   -                 2-3     12.096 /_ -121.9   0.97002    12.470
   -                 3-1     13.043 /_  119.4    1.0459    12.470
M1026824 ........... 1-2     12.755 /_   -5.0    1.0229    12.470
   -                 2-3     12.119 /_ -121.8   0.97186    12.470
   -                 3-1     13.035 /_  119.0    1.0453    12.470
M3032980 ........... 1-2     12.981 /_   -0.9    1.0409    12.470
   -                 2-3      13.02 /_ -120.3    1.0441    12.470
   -                 3-1     13.106 /_  119.3     1.051    12.470
M3032977 ........... 1-2     12.961 /_   -0.9    1.0394    12.470
   -                 2-3     13.009 /_ -120.3    1.0432    12.470
   -                 3-1     13.099 /_  119.2    1.0504    12.470
M3763618 ........... 1-2     12.951 /_   -4.6    1.0386    12.470
   -                 2-3     12.246 /_ -121.8   0.98203    12.470
   -                 3-1     13.152 /_  119.4    1.0547    12.470
M1047490 ........... 1-2     12.907 /_   -4.6     1.035    12.470
   -                 2-3     12.203 /_ -121.7   0.97859    12.470
   -                 3-1     13.111 /_  119.5    1.0514    12.470
M1047486 ........... 1-2     12.884 /_   -4.6    1.0332    12.470
   -                 2-3     12.177 /_ -121.7   0.97651    12.470
   -                 3-1     13.092 /_  119.5    1.0498    12.470
M1047669 ........... 1-2     12.925 /_   -4.6    1.0365    12.470
   -                 2-3     12.228 /_ -121.6   0.98062    12.470
   -                 3-1     13.147 /_  119.5    1.0543    12.470
M1047672 ........... 1-2     12.925 /_   -4.6    1.0365    12.470
   -                 2-3     12.228 /_ -121.6    0.9806    12.470
   -                 3-1     13.147 /_  119.5    1.0543    12.470
M1125919 ........... 1-2      12.83 /_   -1.3    1.0289    12.470
   -                 2-3     12.933 /_ -120.6    1.0372    12.470
   -                 3-1     13.014 /_  118.6    1.0436    12.470
M1142819 ........... 1-2     12.845 /_   -1.2    1.0301    12.470
   -                 2-3     12.942 /_ -120.5    1.0379    12.470
   -                 3-1     13.031 /_  118.8     1.045    12.470
M1089143 ........... 1-2     12.579 /_   -2.0    1.0087    12.470
   -                 2-3     12.765 /_ -121.3    1.0237    12.470
   -                 3-1     12.798 /_  117.6    1.0263    12.470
M1069481 ........... 1-2      12.87 /_   -4.7     1.032    12.470
   -                 2-3     12.154 /_ -121.8   0.97468    12.470
   -                 3-1     13.078 /_  119.4    1.0488    12.470
M1026331 ........... 1-2     12.524 /_   -3.7    1.0043    12.470
   -                 2-3      12.63 /_ -122.3    1.0128    12.470
   -                 3-1     12.841 /_  116.6    1.0297    12.470
M1108295 ........... 1-2     12.762 /_   -1.7    1.0234    12.470
   -                 2-3     12.891 /_ -121.0    1.0338    12.470
   -                 3-1     12.953 /_  118.2    1.0387    12.470
L2936279 ........... 1-2     12.741 /_   -1.7    1.0218    12.470
   -                 2-3     12.877 /_ -121.0    1.0326    12.470
   -                 3-1     12.935 /_  118.1    1.0373    12.470
M1089115 ........... 1-2     12.868 /_   -3.0    1.0319    12.470
   -                 2-3     12.786 /_ -121.9    1.0253    12.470
   -                 3-1     13.038 /_  117.8    1.0455    12.470
M1125968 ........... 1-2     12.759 /_   -0.5    1.0232    12.470
   -                 2-3     12.885 /_ -119.5    1.0333    12.470
   -                 3-1     13.029 /_  119.5    1.0448    12.470
M1069175 ........... 1-2     12.825 /_   -3.1    1.0285    12.470
   -                 2-3     12.764 /_ -122.0    1.0236    12.470
   -                 3-1      13.01 /_  117.6    1.0433    12.470
M3763619 ........... 1-2     12.951 /_   -4.6    1.0386    12.470
   -                 2-3     12.246 /_ -121.8   0.98203    12.470
   -                 3-1     13.153 /_  119.4    1.0547    12.470
M1089196 ........... 1-2     12.953 /_   -2.1    1.0388    12.470
   -                 2-3       12.6 /_ -120.0    1.0104    12.470
   -                 3-1     13.173 /_  120.3    1.0564    12.470
M1047484 ........... 1-2     12.881 /_   -4.7    1.0329    12.470
   -                 2-3     12.172 /_ -121.7   0.97608    12.470
   -                 3-1     13.088 /_  119.5    1.0496    12.470
L3010560 ........... 1-2     12.879 /_   -4.7    1.0328    12.470
   -                 2-3     12.169 /_ -121.7   0.97583    12.470
...