Feeders/8500-Node/IEEE8500_VLN_Node.Txt

LINE-GROUND and LINE-LINE VOLTAGES BY BUS & NODE

Bus                  Node    VLN (kV)   Angle      pu     Base kV    Node-Node   VLL (kV)  Angle      pu

SOURCEBUS .......... 1       69.715 /_    0.0      1.05   115.000        1-2     120.75 /_   30.0      1.05
   -                 2       69.715 /_ -120.0      1.05   115.000        2-3     120.75 /_  -90.0      1.05
   -                 3       69.715 /_  120.0      1.05   115.000        3-1     120.75 /_  150.0      1.05
_HVMV_SUB_LSB ...... 1       7.5555 /_  -30.8    1.0494    12.470        1-2     13.074 /_   -0.7    1.0484
   -                 2       7.5639 /_ -150.5    1.0506    12.470        2-3     13.076 /_ -120.3    1.0486
   -                 3       7.5632 /_   89.8    1.0505    12.470        3-1     13.138 /_  119.5    1.0535
HVMV_SUB_48332 ..... 1       7.5555 /_  -30.8    1.0494    12.470        1-2     13.074 /_   -0.7    1.0484
   -                 2       7.5639 /_ -150.5    1.0506    12.470        2-3     13.076 /_ -120.3    1.0486
   -                 3       7.5632 /_   89.8    1.0505    12.470        3-1     13.138 /_  119.5    1.0535
M1009763 ........... 1       7.1978 /_  -33.8   0.99975    12.470        1-2     12.768 /_   -4.8    1.0239
   -                 2       7.3603 /_ -156.4    1.0223    12.470        2-3     12.198 /_ -121.9   0.97818
   -                 3       7.4204 /_   92.4    1.0307    12.470        3-1     13.037 /_  118.8    1.0455
L2673322 ........... 2       7.3602 /_ -156.4    1.0223    12.470
M1069148 ........... 3       7.4041 /_   89.0    1.0284    12.470
L2673309 ........... 3        7.404 /_   89.0    1.0284    12.470
M1069588 ........... 2       7.2892 /_ -155.0    1.0125    12.470
L2804270 ........... 2       7.2892 /_ -155.0    1.0125    12.470
M3036164 ........... 2       7.3012 /_ -156.1    1.0141    12.470
L2935553 ........... 2       7.2993 /_ -156.1    1.0139    12.470
M1209749 ........... 2       7.5276 /_ -151.1    1.0456    12.470
L2748840 ........... 2       7.5275 /_ -151.1    1.0456    12.470
M1108264 ........... 2       7.4725 /_ -152.8    1.0379    12.470
M1108263 ........... 2       7.4721 /_ -152.8    1.0379    12.470
L3085398 ........... 1       7.2207 /_  -33.9    1.0029    12.470        1-2     12.808 /_   -4.8    1.0271
   -                 2       7.3875 /_ -156.4    1.0261    12.470        2-3     12.225 /_ -121.9   0.98035
   -                 3       7.4203 /_   92.3    1.0307    12.470        3-1     13.058 /_  118.8    1.0471
M1026891 ........... 1       7.2189 /_  -33.9    1.0027    12.470        1-2     12.803 /_   -4.8    1.0267
   -                 2       7.3839 /_ -156.4    1.0256    12.470        2-3     12.222 /_ -121.9   0.98008
   -                 3       7.4203 /_   92.3    1.0307    12.470        3-1     13.056 /_  118.8     1.047
L3216367 ........... 1       7.3096 /_  -33.2    1.0153    12.470        1-2     12.873 /_   -4.6    1.0323
   -                 2       7.3477 /_ -156.1    1.0206    12.470        2-3     12.222 /_ -121.8   0.98013
   -                 3       7.4103 /_   92.1    1.0293    12.470        3-1     13.075 /_  119.2    1.0485
M1069468 ........... 1       7.3094 /_  -33.2    1.0153    12.470        1-2     12.871 /_   -4.6    1.0322
   -                 2       7.3461 /_ -156.1    1.0204    12.470        2-3     12.221 /_ -121.8      0.98
   -                 3       7.4099 /_   92.1    1.0292    12.470        3-1     13.074 /_  119.2    1.0485
M1142800 ........... 2       7.5185 /_ -151.5    1.0443    12.470
M1142799 ........... 2       7.5184 /_ -151.5    1.0443    12.470
M1047592 ........... 1       7.3523 /_  -33.5    1.0212    12.470        1-2     12.972 /_   -4.5    1.0403
   -                 2       7.4515 /_ -155.9     1.035    12.470        2-3      12.33 /_ -121.8    0.9888
   -                 3       7.4349 /_   92.3    1.0327    12.470        3-1     13.161 /_  119.2    1.0554
P827512 ............ 3       7.4348 /_   92.3    1.0327    12.470
M1047339 ........... 1       7.2555 /_  -34.3    1.0078    12.470        1-2     12.645 /_   -3.9     1.014
   -                 2       7.3742 /_ -153.9    1.0243    12.470        2-3     12.684 /_ -122.4    1.0172
   -                 3       7.4669 /_   88.6    1.0371    12.470        3-1     12.935 /_  116.7    1.0373
P895104 ............ 1       7.2555 /_  -34.3    1.0078    12.470
M1026915 ........... 1       7.2154 /_  -33.9    1.0022    12.470        1-2     12.802 /_   -4.7    1.0267
   -                 2       7.3868 /_ -156.4     1.026    12.470        2-3     12.223 /_ -121.9   0.98019
   -                 3        7.419 /_   92.3    1.0305    12.470        3-1     13.052 /_  118.8    1.0467
M1026920 ........... 1       7.2119 /_  -33.9    1.0017    12.470        1-2     12.798 /_   -4.7    1.0263
   -                 2       7.3851 /_ -156.4    1.0258    12.470        2-3     12.221 /_ -121.9      0.98
   -                 3       7.4182 /_   92.3    1.0304    12.470        3-1     13.048 /_  118.8    1.0464
N1138596 ........... 1       7.3031 /_  -33.1    1.0144    12.470
L3254207 ........... 1       7.3029 /_  -33.1    1.0144    12.470
M1069464 ........... 1        7.309 /_  -33.2    1.0152    12.470        1-2      12.87 /_   -4.6     1.032
   -                 2       7.3433 /_ -156.1      1.02    12.470        2-3     12.218 /_ -121.8   0.97978
   -                 3       7.4091 /_   92.1    1.0291    12.470        3-1     13.072 /_  119.2    1.0483
P873787 ............ 2       7.3433 /_ -156.1      1.02    12.470
N1144665 ........... 1        7.387 /_  -33.2     1.026    12.470        1-2      13.01 /_   -4.3    1.0433
   -                 2        7.454 /_ -155.7    1.0353    12.470        2-3     12.349 /_ -121.7    0.9903
   -                 3       7.4414 /_   92.3    1.0336    12.470        3-1     13.184 /_  119.4    1.0573
M1047515 ........... 1       7.3822 /_  -33.2    1.0254    12.470        1-2     13.003 /_   -4.3    1.0427
   -                 2       7.4507 /_ -155.7    1.0349    12.470        2-3     12.344 /_ -121.7   0.98993
   -                 3       7.4395 /_   92.3    1.0333    12.470        3-1     13.179 /_  119.4    1.0568
N1137002 ........... 1       7.3315 /_  -33.3    1.0183    12.470
M1047707 ........... 1       7.3314 /_  -33.3    1.0183    12.470
L2729406 ........... 3       7.2862 /_   89.4     1.012    12.470
L2897768 ........... 3       7.2858 /_   89.4     1.012    12.470
L3649301 ........... 1       7.3194 /_  -33.6    1.0167    12.470
L3649302 ........... 1       7.3191 /_  -33.6    1.0166    12.470
L2970842 ........... 2       7.4883 /_ -152.8    1.0401    12.470
M1089113 ........... 2       7.4855 /_ -152.8    1.0397    12.470
M1047312 ........... 1       7.2133 /_  -34.4    1.0019    12.470        1-2     12.601 /_   -3.8    1.0105
   -                 2       7.3659 /_ -154.0    1.0231    12.470        2-3     12.668 /_ -122.4    1.0159
   -                 3       7.4637 /_   88.7    1.0367    12.470        3-1     12.902 /_  116.6    1.0346
P893163 ............ 1       7.2131 /_  -34.4    1.0019    12.470
L2822871 ........... 1       7.2579 /_  -33.8    1.0081    12.470        1-2      12.86 /_   -4.6    1.0313
   -                 2        7.418 /_ -156.2    1.0303    12.470        2-3     12.265 /_ -121.9   0.98358
   -                 3       7.4236 /_   92.4    1.0311    12.470        3-1      13.09 /_  119.0    1.0497
M1026872 ........... 1       7.2547 /_  -33.8    1.0077    12.470        1-2     12.856 /_   -4.6    1.0309
   -                 2       7.4156 /_ -156.2      1.03    12.470        2-3     12.262 /_ -121.9   0.98332
   -                 3       7.4233 /_   92.4    1.0311    12.470        3-1     13.087 /_  118.9    1.0495
M1026312 ........... 2       7.3112 /_ -154.1    1.0155    12.470
L2973163 ........... 2       7.3101 /_ -154.1    1.0154    12.470
L3728038 ........... 1       7.3078 /_  -33.4     1.015    12.470
L3728039 ........... 1        7.307 /_  -33.4    1.0149    12.470
M1069567 ........... 2        7.323 /_ -154.9    1.0171    12.470
M1069582 ........... 2        7.298 /_ -155.0    1.0137    12.470
N1140830 ........... 1       7.2642 /_  -33.4     1.009    12.470
L3216351 ........... 1       7.2642 /_  -33.4     1.009    12.470
L2952007 ........... 3       7.4325 /_   89.7    1.0323    12.470
L2861158 ........... 3       7.4324 /_   89.7    1.0323    12.470
N1140827 ........... 1       7.2676 /_  -33.4    1.0095    12.470        1-2     12.879 /_   -4.2    1.0328
   -                 2       7.4347 /_ -155.7    1.0327    12.470        2-3     12.289 /_ -121.7   0.98549
   -                 3       7.3998 /_   92.4    1.0278    12.470        3-1     13.058 /_  119.2    1.0471
M1026726 ........... 1       7.2676 /_  -33.4    1.0095    12.470        1-2     12.879 /_   -4.2    1.0328
   -                 2       7.4346 /_ -155.7    1.0327    12.470        2-3     12.289 /_ -121.7   0.98549
   -                 3       7.3998 /_   92.4    1.0278    12.470        3-1     13.058 /_  119.2    1.0471
L2730106 ........... 1        7.105 /_  -30.6   0.98687    12.470        1-2     12.699 /_   -0.3    1.0183
   -                 2       7.4861 /_ -151.6    1.0398    12.470        2-3     12.849 /_ -119.0    1.0304
   -                 3       7.6785 /_   92.6    1.0665    12.470        3-1     13.008 /_  119.8    1.0431
N1142099 ........... 1       7.1031 /_  -30.6    0.9866    12.470        1-2     12.697 /_   -0.2    1.0182
   -                 2       7.4858 /_ -151.6    1.0398    12.470        2-3     12.848 /_ -119.0    1.0303
   -                 3       7.6795 /_   92.6    1.0667    12.470        3-1     13.007 /_  119.8    1.0431
M1026658 ........... 1       7.2627 /_  -33.4    1.0088    12.470        1-2     12.874 /_   -4.2    1.0324
   -                 2        7.436 /_ -155.7    1.0328    12.470        2-3     12.287 /_ -121.7   0.98534
   -                 3       7.3959 /_   92.4    1.0273    12.470        3-1     13.051 /_  119.2    1.0466
L3172805 ........... 1       7.2626 /_  -33.4    1.0088    12.470
P895112 ............ 1       7.2993 /_  -31.3    1.0139    12.470
L3048962 ........... 1       7.2993 /_  -31.3    1.0139    12.470
L2991914 ........... 1       7.3444 /_  -33.3    1.0201    12.470        1-2     12.951 /_   -4.3    1.0385
   -                 2       7.4293 /_ -155.7    1.0319    12.470        2-3     12.311 /_ -121.7   0.98726
   -                 3       7.4243 /_   92.3    1.0312    12.470        3-1     13.134 /_  119.4    1.0532
M1047503 ........... 1       7.3426 /_  -33.3    1.0199    12.470        1-2     12.949 /_   -4.3    1.0384
   -                 2       7.4294 /_ -155.7    1.0319    12.470        2-3     12.311 /_ -121.7   0.98721
   -                 3       7.4235 /_   92.3    1.0311    12.470        3-1     13.132 /_  119.4    1.0531
M1047751 ........... 1       7.2839 /_  -33.2    1.0117    12.470
L2973154 ........... 1       7.2838 /_  -33.2    1.0117    12.470
L3010565 ........... 3        7.426 /_   89.0    1.0315    12.470
L2897775 ........... 3        7.426 /_   89.0    1.0314    12.470
M1125955 ........... 3       7.6294 /_   91.5    1.0597    12.470
M1125957 ........... 3       7.6294 /_   91.5    1.0597    12.470
M1069640 ........... 2       7.2245 /_ -155.1    1.0035    12.470
L2804269 ........... 2       7.2215 /_ -155.1    1.0031    12.470
M1026702 ........... 1       7.2807 /_  -33.4    1.0113    12.470        1-2     12.891 /_   -4.2    1.0338
   -                 2        7.434 /_ -155.7    1.0326    12.470        2-3     12.293 /_ -121.7   0.98584
   -                 3       7.4046 /_   92.4    1.0285    12.470        3-1     13.071 /_  119.3    1.0482
N1139551 ........... 1       7.2745 /_  -33.4    1.0104    12.470        1-2     12.886 /_   -4.2    1.0333
   -                 2       7.4346 /_ -155.7    1.0326    12.470        2-3     12.292 /_ -121.7   0.98572
   -                 3        7.403 /_   92.4    1.0283    12.470        3-1     13.066 /_  119.3    1.0478
N1136355 ........... 2       7.4041 /_ -154.8    1.0284    12.470
L2783231 ........... 2       7.3916 /_ -154.8    1.0267    12.470
L2748143 ........... 1       7.2478 /_  -31.9    1.0067    12.470
L3251854 ........... 1       7.2477 /_  -31.9    1.0067    12.470
M1069610 ........... 2       7.2647 /_ -155.0    1.0091    12.470
M1069600 ........... 2       7.2647 /_ -155.0    1.0091    12.470
M1069424 ........... 1       7.3063 /_  -33.2    1.0148    12.470        1-2     12.855 /_   -4.7    1.0309
   -                 2       7.3214 /_ -156.2    1.0169    12.470        2-3     12.196 /_ -121.9   0.97799
   -                 3       7.4037 /_   92.0    1.0284    12.470        3-1     13.058 /_  119.2    1.0472
L2935549 ........... 1       7.3059 /_  -33.2    1.0148    12.470        1-2     12.853 /_   -4.7    1.0307
   -                 2       7.3182 /_ -156.2    1.0165    12.470        2-3     12.192 /_ -121.9   0.97774
   -                 3       7.4032 /_   92.0    1.0283    12.470        3-1     13.056 /_  119.2     1.047
P895089 ............ 3       7.5689 /_   92.4    1.0513    12.470
L3235242 ........... 3       7.5688 /_   92.4    1.0513    12.470
M1026795 ........... 1       7.3246 /_  -33.3    1.0174    12.470        1-2     12.932 /_   -4.3     1.037
   -                 2       7.4308 /_ -155.7    1.0321    12.470        2-3     12.305 /_ -121.7   0.98674
   -                 3       7.4165 /_   92.3    1.0301    12.470        3-1     13.113 /_  119.3    1.0516
N1140522 ........... 3       7.4165 /_   92.3    1.0301    12.470
L3030199 ........... 1       7.3207 /_  -31.9    1.0168    12.470        1-2     12.831 /_   -1.3    1.0289
   -                 2        7.519 /_ -151.6    1.0444    12.470        2-3     12.939 /_ -120.6    1.0376
   -                 3       7.5549 /_   90.2    1.0494    12.470        3-1     13.015 /_  118.6    1.0437
M1125934 ........... 1       7.3205 /_  -31.9    1.0168    12.470        1-2      12.83 /_   -1.3    1.0289
   -                 2       7.5188 /_ -151.6    1.0443    12.470        2-3     12.938 /_ -120.6    1.0376
   -                 3       7.5538 /_   90.2    1.0492    12.470        3-1     13.014 /_  118.6    1.0436
M1069189 ........... 1       7.4198 /_  -33.6    1.0306    12.470        1-2     12.847 /_   -3.2    1.0302
   -                 2        7.462 /_ -153.0    1.0364    12.470        2-3     12.769 /_ -122.1     1.024
   -                 3       7.4364 /_   89.0    1.0329    12.470        3-1     13.035 /_  117.6    1.0453
L2860487 ........... 3       7.4363 /_   89.0    1.0329    12.470
221-312488 ......... 1       7.1384 /_  -30.8    0.9915    12.470        1-2     12.715 /_   -0.4    1.0196
   -                 2        7.486 /_ -151.6    1.0398    12.470        2-3     12.858 /_ -119.3    1.0311
   -                 3       7.6549 /_   92.2    1.0632    12.470        3-1     13.002 /_  119.6    1.0427
M1089183 ........... 1       7.1384 /_  -30.8    0.9915    12.470        1-2     12.715 /_   -0.4    1.0196
   -                 2        7.486 /_ -151.6    1.0398    12.470        2-3     12.858 /_ -119.3    1.0311
   -                 3       7.6549 /_   92.2    1.0632    12.470        3-1     13.002 /_  119.6    1.0427
M1108464 ........... 2       7.4849 /_ -151.6    1.0396    12.470
L3102286 ........... 2       7.4848 /_ -151.6    1.0396    12.470
F739845 ............ 1       7.1947 /_  -34.4   0.99933    12.470        1-2     12.578 /_   -3.8    1.0087
   -                 2       7.3574 /_ -154.0    1.0219    12.470        2-3     12.657 /_ -122.4     1.015
   -                 3       7.4627 /_   88.7    1.0365    12.470        3-1     12.887 /_  116.6    1.0334
293471 ............. 1       7.1947 /_  -34.4   0.99932    12.470        1-2     12.578 /_   -3.8    1.0087
   -                 2       7.3574 /_ -154.0    1.0219    12.470        2-3     12.657 /_ -122.4     1.015
   -                 3       7.4627 /_   88.7    1.0365    12.470        3-1     12.887 /_  116.6    1.0334
P827499 ............ 1       7.3055 /_  -33.2    1.0147    12.470
N1139254 ........... 1       7.3055 /_  -33.2    1.0147    12.470
M1026657 ........... 1       7.2623 /_  -33.4    1.0087    12.470
M1026656 ........... 1       7.2621 /_  -33.4    1.0087    12.470
M1108299 ........... 2       7.5131 /_ -151.8    1.0435    12.470
M1108300 ........... 2       7.5131 /_ -151.8    1.0435    12.470
L3198355 ........... 2        7.513 /_ -151.8    1.0435    12.470
L2805037 ........... 2        7.513 /_ -151.8    1.0435    12.470
N1137994 ........... 3       7.4109 /_   92.1    1.0294    12.470
M1069484 ........... 3       7.4103 /_   92.1    1.0293    12.470
L2860504 ........... 1        7.265 /_  -33.4    1.0091    12.470
L2860493 ........... 1       7.2647 /_  -33.4     1.009    12.470
M1026783 ........... 1        7.319 /_  -33.3    1.0166    12.470        1-2     12.927 /_   -4.3    1.0366
   -                 2       7.4312 /_ -155.7    1.0322    12.470        2-3     12.303 /_ -121.7   0.98663
   -                 3        7.415 /_   92.3    1.0299    12.470        3-1     13.108 /_  119.3    1.0512
M1026780 ........... 1       7.3181 /_  -33.3    1.0165    12.470        1-2     12.926 /_   -4.3    1.0366
   -                 2       7.4313 /_ -155.7    1.0322    12.470        2-3     12.303 /_ -121.7   0.98661
   -                 3       7.4148 /_   92.4    1.0299    12.470        3-1     13.107 /_  119.3    1.0511
P895111 ............ 3       7.6094 /_   91.0    1.0569    12.470
L2895496 ........... 3       7.6092 /_   91.0    1.0569    12.470
N1140819 ........... 1       7.2699 /_  -33.4    1.0098    12.470        1-2     12.881 /_   -4.2     1.033
   -                 2       7.4346 /_ -155.7    1.0327    12.470        2-3      12.29 /_ -121.7   0.98558
   -                 3       7.4011 /_   92.4     1.028    12.470        3-1     13.061 /_  119.3    1.0474
M1026700 ........... 1       7.2693 /_  -33.4    1.0097    12.470        1-2     12.881 /_   -4.2    1.0329
   -                 2       7.4346 /_ -155.7    1.0327    12.470        2-3      12.29 /_ -121.7   0.98555
   -                 3       7.4008 /_   92.4    1.0279    12.470        3-1      13.06 /_  119.2    1.0473
M1089173 ........... 3       7.2951 /_   89.4    1.0133    12.470
L2935551 ........... 3       7.2931 /_   89.4     1.013    12.470
M1026344 ........... 1       7.1453 /_  -34.4   0.99247    12.470
M1026364 ........... 1       7.1452 /_  -34.4   0.99245    12.470
L2879070 ........... 1       7.3394 /_  -33.5    1.0194    12.470        1-2     12.958 /_   -4.5    1.0391
   -                 2       7.4487 /_ -155.9    1.0346    12.470        2-3     12.323 /_ -121.8    0.9882
   -                 3       7.4329 /_   92.3    1.0324    12.470        3-1     13.152 /_  119.2    1.0547
L3216345 ........... 1       7.3307 /_  -33.6    1.0182    12.470        1-2     12.948 /_   -4.5    1.0383
   -                 2        7.447 /_ -155.9    1.0344    12.470        2-3     12.318 /_ -121.8   0.98782
   -                 3       7.4318 /_   92.3    1.0323    12.470        3-1     13.146 /_  119.2    1.0542
M1069428 ........... 1       7.3067 /_  -33.2    1.0149    12.470        1-2     12.857 /_   -4.6     1.031
   -                 2        7.324 /_ -156.2    1.0173    12.470        2-3     12.198 /_ -121.9   0.97821
   -                 3       7.4043 /_   92.0    1.0284    12.470        3-1      13.06 /_  119.2    1.0473
N1139257 ........... 2        7.324 /_ -156.2    1.0173    12.470
L2991919 ........... 1       7.1398 /_  -34.4   0.99171    12.470
M1026361 ........... 1       7.1363 /_  -34.4   0.99121    12.470
N1147857 ........... 1       7.1978 /_  -33.8   0.99975    12.470
M1009742 ........... 1        7.197 /_  -33.8   0.99964    12.470
Q14412 ............. 1       7.2445 /_  -34.3    1.0062    12.470        1-2     12.633 /_   -3.9    1.0131
   -                 2        7.372 /_ -154.0     1.024    12.470        2-3      12.68 /_ -122.4    1.0168
   -                 3        7.466 /_   88.6     1.037    12.470        3-1     12.927 /_  116.7    1.0366
M1047325 ........... 1       7.2414 /_  -34.3    1.0058    12.470        1-2      12.63 /_   -3.9    1.0128
   -                 2       7.3714 /_ -154.0    1.0239    12.470        2-3     12.679 /_ -122.4    1.0167
   -                 3       7.4658 /_   88.6     1.037    12.470        3-1     12.924 /_  116.7    1.0364
N1139263 ........... 1       7.3093 /_  -33.2    1.0152    12.470
L3048227 ........... 1       7.3093 /_  -33.2    1.0152    12.470
P827506 ............ 1       7.3093 /_  -33.2    1.0152    12.470
M1069469 ........... 1       7.3093 /_  -33.2    1.0152    12.470
M1027019 ........... 2       7.3097 /_ -156.5    1.0153    12.470
L2785522 ........... 2       7.3096 /_ -156.5    1.0153    12.470
L3216338 ........... 2       7.3311 /_ -156.5    1.0183    12.470
L2973146 ........... 2       7.3311 /_ -156.5    1.0183    12.470
M3037452 ........... 1       7.1218 /_  -34.5    0.9892    12.470
L2973164 ........... 1       7.1218 /_  -34.5    0.9892    12.470
L3120376 ........... 1       7.2622 /_  -33.8    1.0087    12.470
M1026925 ........... 1        7.261 /_  -33.8    1.0085    12.470
M1047612 ........... 3       7.4428 /_   92.3    1.0338    12.470
P828360 ............ 3       7.4428 /_   92.3    1.0338    12.470
M1089195 ........... 3       7.5687 /_   92.4    1.0513    12.470
L3141393 ........... 3       7.5686 /_   92.4    1.0513    12.470
M1026946 ........... 2       7.3499 /_ -156.5    1.0209    12.470
M1026940 ........... 2       7.3494 /_ -156.5    1.0208    12.470
M1047471 ........... 2       7.2429 /_ -156.4     1.006    12.470
L3216349 ........... 2       7.2429 /_ -156.4     1.006    12.470
M1047401 ........... 1       7.2385 /_  -33.5    1.0054    12.470
L2748132 ........... 1       7.2384 /_  -33.5    1.0054    12.470
L3122820 ........... 1       7.2514 /_  -33.4    1.0072    12.470
L3141398 ........... 1       7.2514 /_  -33.4    1.0072    12.470
M1108360 ........... 3       7.4139 /_   89.6    1.0298    12.470
L3048968 ........... 3       7.4138 /_   89.6    1.0298    12.470
L2801950 ........... 3       7.4191 /_   89.0    1.0305    12.470
M1069224 ........... 3       7.4189 /_   89.0    1.0305    12.470
L2766746 ........... 3       7.3509 /_   92.3     1.021    12.470
M1027073 ........... 3        7.348 /_   92.3    1.0206    12.470
M1142873 ........... 3       7.6091 /_   91.0    1.0569    12.470
M1069181 ........... 1       7.3747 /_  -33.8    1.0243    12.470
L2973151 ........... 1       7.3742 /_  -33.8    1.0243    12.470
L3179682 ........... 3       7.5212 /_   89.8    1.0447    12.470
L2786274 ........... 3       7.5212 /_   89.8    1.0447    12.470
L3066816 ........... 1       7.2638 /_  -33.4    1.0089    12.470
M1026667 ........... 1       7.2637 /_  -33.4    1.0089    12.470
M1108529 ........... 1       7.4648 /_  -30.9    1.0368    12.470        1-2     13.087 /_   -1.4    1.0494
   -                 2        7.549 /_ -152.2    1.0485    12.470        2-3      12.71 /_ -119.8    1.0193
   -                 3       7.5129 /_   92.7    1.0435    12.470        3-1       13.2 /_  120.8    1.0585
M1108532 ........... 1       7.4622 /_  -30.9    1.0365    12.470        1-2     13.084 /_   -1.4    1.0492
   -                 2       7.5475 /_ -152.2    1.0483    12.470        2-3     12.708 /_ -119.8    1.0191
   -                 3       7.5138 /_   92.7    1.0436    12.470        3-1     13.199 /_  120.8    1.0584
L2766723 ........... 1       7.2646 /_  -33.4     1.009    12.470
L3122822 ........... 1       7.2645 /_  -33.4     1.009    12.470
L2673312 ........... 1       7.1096 /_  -33.9    0.9875    12.470
L3235247 ........... 1       7.1095 /_  -33.9   0.98749    12.470
M1166391 ........... 3       7.4501 /_   89.7    1.0348    12.470
L3254873 ........... 3       7.4459 /_   89.7    1.0342    12.470
L2861157 ........... 3       7.4886 /_   89.8    1.0402    12.470
P901951 ............ 3        7.485 /_   89.8    1.0397    12.470
M1047346 ........... 1       7.2717 /_  -34.3      1.01    12.470        1-2     12.661 /_   -3.9    1.0154
   -                 2       7.3769 /_ -153.9    1.0246    12.470        2-3      12.69 /_ -122.5    1.0176
   -                 3       7.4681 /_   88.6    1.0373    12.470        3-1     12.948 /_  116.7    1.0384
M1047345 ........... 1       7.2675 /_  -34.3    1.0094    12.470        1-2     12.657 /_   -3.9     1.015
   -                 2       7.3762 /_ -153.9    1.0245    12.470        2-3     12.688 /_ -122.5    1.0175
   -                 3       7.4678 /_   88.6    1.0373    12.470        3-1     12.945 /_  116.7    1.0381
L2989596 ........... 2       7.3553 /_ -154.9    1.0216    12.470
L2822873 ........... 2       7.3553 /_ -154.9    1.0216    12.470
M1108328 ........... 3       7.4915 /_   89.7    1.0405    12.470
L2875754 ........... 3       7.4914 /_   89.7    1.0405    12.470
L2786204 ........... 3       7.5414 /_   89.9    1.0475    12.470
M1209819 ........... 3       7.5379 /_   89.9     1.047    12.470
P901972 ............ 1       7.1968 /_  -33.8   0.99962    12.470
M1009726 ........... 1       7.1955 /_  -33.9   0.99944    12.470
M1047702 ........... 1       7.3315 /_  -33.3    1.0183    12.470
N1137001 ........... 1       7.3314 /_  -33.3    1.0183    12.470
L2767340 ........... 1       7.1703 /_  -30.9   0.99594    12.470        1-2     12.745 /_   -0.5    1.0221
   -                 2        7.497 /_ -151.5    1.0413    12.470        2-3     12.879 /_ -119.4    1.0328
   -                 3       7.6504 /_   92.0    1.0626    12.470        3-1     13.019 /_  119.5     1.044
M3037449 ........... 1       7.1703 /_  -30.9   0.99594    12.470        1-2     12.745 /_   -0.5    1.0221
   -                 2        7.497 /_ -151.5    1.0413    12.470        2-3     12.879 /_ -119.4    1.0328
   -                 3       7.6504 /_   92.0    1.0626    12.470        3-1     13.019 /_  119.5     1.044
M1047457 ........... 2       7.2458 /_ -156.4    1.0064    12.470
L2710546 ........... 2       7.2455 /_ -156.4    1.0064    12.470
L2674027 ........... 1       7.0445 /_  -30.8   0.97846    12.470        1-2     12.644 /_   -0.4     1.014
   -                 2       7.4666 /_ -152.0    1.0371    12.470        2-3     12.811 /_ -119.1    1.0274
   -                 3       7.6998 /_   92.7    1.0695    12.470        3-1     12.993 /_  119.6    1.0419
L2692633 ........... 1        7.037 /_  -30.8   0.97742    12.470        1-2     12.637 /_   -0.5    1.0134
   -                 2       7.4627 /_ -152.1    1.0365    12.470        2-3     12.805 /_ -119.1    1.0269
   -                 3       7.7021 /_   92.7    1.0698    12.470        3-1      12.99 /_  119.6    1.0417
N1142108 ........... 1       7.3159 /_  -32.2    1.0162    12.470
L2674051 ........... 1       7.3158 /_  -32.2    1.0161    12.470
M1069135 ........... 1       7.2991 /_  -34.3    1.0138    12.470        1-2     12.689 /_   -3.9    1.0175
   -                 2       7.3801 /_ -153.9    1.0251    12.470        2-3     12.698 /_ -122.4    1.0183
   -                 3       7.4693 /_   88.6    1.0375    12.470        3-1     12.969 /_  116.8      1.04
R18242 ............. 1       7.2935 /_  -34.3     1.013    12.470        1-2     12.684 /_   -3.9    1.0171
   -                 2       7.3805 /_ -153.9    1.0251    12.470        2-3     12.698 /_ -122.5    1.0183
   -                 3       7.4701 /_   88.6    1.0376    12.470        3-1     12.966 /_  116.8    1.0398
M1047534 ........... 1       7.4708 /_  -33.0    1.0377    12.470        1-2     13.122 /_   -4.2    1.0523
   -                 2       7.4994 /_ -155.5    1.0416    12.470        2-3     12.423 /_ -121.7   0.99622
   -                 3       7.4669 /_   92.3    1.0371    12.470        3-1      13.27 /_  119.6    1.0641
N1136663 ........... 1       7.4475 /_  -33.1    1.0344    12.470        1-2     13.093 /_   -4.3    1.0499
   -                 2       7.4887 /_ -155.6    1.0402    12.470        2-3     12.404 /_ -121.7   0.99469
   -                 3       7.4612 /_   92.3    1.0363    12.470        3-1     13.248 /_  119.6    1.0624
M1108508 ........... 3       7.5276 /_   92.6    1.0456    12.470
L3097861 ........... 3       7.5257 /_   92.6    1.0453    12.470
M1069560 ........... 2       7.3365 /_ -154.9     1.019    12.470
L2973153 ........... 1       7.3466 /_  -33.3    1.0204    12.470        1-2     12.954 /_   -4.4    1.0388
   -                 2       7.4278 /_ -155.8    1.0317    12.470        2-3     12.318 /_ -121.7    0.9878
   -                 3       7.4442 /_   92.3     1.034    12.470        3-1     13.158 /_  119.3    1.0552
N1136998 ........... 1       7.3459 /_  -33.3    1.0203    12.470        1-2     12.953 /_   -4.4    1.0387
   -                 2       7.4271 /_ -155.8    1.0316    12.470        2-3     12.317 /_ -121.7   0.98775
   -                 3       7.4443 /_   92.3     1.034    12.470        3-1     13.157 /_  119.3    1.0551
L2898515 ........... 3       7.5834 /_   90.3    1.0533    12.470
M1166387 ........... 3       7.5833 /_   90.3    1.0533    12.470
M1047442 ........... 2       7.2585 /_ -156.4    1.0082    12.470
L3235250 ........... 2       7.2584 /_ -156.4    1.0082    12.470
M1142871 ........... 1       7.2803 /_  -31.3    1.0112    12.470        1-2     12.827 /_   -0.8    1.0287
   -                 2       7.5181 /_ -151.4    1.0442    12.470        2-3     12.934 /_ -120.0    1.0372
   -                 3       7.6082 /_   91.0    1.0568    12.470        3-1     13.041 /_  119.2    1.0458
M1142874 ........... 1       7.2769 /_  -31.3    1.0107    12.470        1-2     12.825 /_   -0.8    1.0285
   -                 2       7.5174 /_ -151.5    1.0442    12.470        2-3     12.932 /_ -120.0    1.0371
...